Circuit: * D:\facultad\Circuitos electronicos\CircuitosElectronicos\TL4\simulaciones\CircuitoCompletoNuevo.asc

WARNING: Less than two connections to node N009.  This node is used by V2.
Direct Newton iteration for .op point succeeded.
.step x=0
.step x=0.25
.step x=0.5
.step x=0.75
.step x=1

Date: Thu Dec 22 22:21:03 2016
Total elapsed time: 4.628 seconds.

tnom = 27
temp = 27
method = modified trap
totiter = 2186
traniter = 2178
tranpoints = 1090
accept = 1090
rejected = 0
matrix size = 33
fillins = 6
solver = Normal
Matrix Compiler1: 2.35 KB object code size  1.0/0.9/[0.4]
Matrix Compiler2: off  [0.6]/0.8/1.2


