Circuit: * D:\facultad\Circuitos electronicos\CircuitosElectronicos\TL4\simulaciones\CircuitoCompleto.asc

Direct Newton iteration for .op point succeeded.
.step x=0
.step x=0.25
.step x=0.5
.step x=0.75
.step x=1

Date: Wed Dec 07 19:05:13 2016
Total elapsed time: 1.770 seconds.

tnom = 27
temp = 27
method = modified trap
totiter = 18952
traniter = 18942
tranpoints = 7659
accept = 5094
rejected = 2565
matrix size = 37
fillins = 14
solver = Normal
Matrix Compiler1: 3.02 KB object code size  1.3/0.9/[0.4]
Matrix Compiler2: off  [0.7]/0.9/1.7


