Circuit: * D:\facultad\Circuitos electronicos\CircuitosElectronicos\TL4\simulaciones\Draft1.asc

Direct Newton iteration for .op point succeeded.

Date: Thu Dec 22 01:00:27 2016
Total elapsed time: 0.122 seconds.

tnom = 27
temp = 27
method = modified trap
totiter = 18316
traniter = 18308
tranpoints = 8147
accept = 5015
rejected = 3132
matrix size = 12
fillins = 1
solver = Normal
Matrix Compiler1: 776 bytes object code size  0.6/0.5/[0.2]
Matrix Compiler2: off  [0.3]/0.5/0.7


