Questionable use of curly braces in ".model sir870adp vdmos(rg=3 vto=2.9 rd=3.2m rs=1.5m rb={m} kp=100 mtriode=1.85 cgdmax=1.4n cgdmin=70p cgs=2.9n cjo=3.6n m=.4 a=.7 vj=.7 lambda=20m is=3p ksubthres=.08 mfg=siliconix vds=100 ron=5.5m qg=53.5n)"
    Error: undefined symbol in: "[m]"
Circuit: * Z:\home\nico\circuitos electronicos\CircuitosElectronicos\TL4\simulaciones\SegundaEtapa.asc

Direct Newton iteration for .op point succeeded.

Date: Thu Oct 13 18:29:24 2016
Total elapsed time: 0.224 seconds.

tnom = 27
temp = 27
method = modified trap
totiter = 20296
traniter = 20286
tranpoints = 10053
accept = 10045
rejected = 8
matrix size = 24
fillins = 3
solver = Normal
Matrix Compiler1: 1.67 KB object code size  0.5/0.3/[0.3]
Matrix Compiler2: 2.10 KB object code size  0.4/0.4/[0.3]


