Circuit: * C:\Users\Nico\Desktop\Circuitos Electronicos I\Trabajo de laboratorio 2\Simulaciones A\ac-Ri\A.asc

.OP point found by inspection.

Date: Fri May 13 12:01:34 2016
Total elapsed time: 0.041 seconds.

tnom = 27
temp = 27
method = trap
totiter = 0
traniter = 0
tranpoints = 0
accept = 0
rejected = 0
matrix size = 10
fillins = 3
solver = Normal

