Circuit: * C:\Users\Nico\Desktop\circuitos\TL4\clase A\TL4.asc

Direct Newton iteration for .op point succeeded.

Date: Thu Sep 22 22:35:33 2016
Total elapsed time: 0.230 seconds.

tnom = 27
temp = 27
method = modified trap
totiter = 20149
traniter = 20139
tranpoints = 10025
accept = 10024
rejected = 1
matrix size = 24
fillins = 3
solver = Normal
Matrix Compiler1: 1.67 KB object code size  0.6/0.2/[0.2]
Matrix Compiler2: off  [0.3]/0.3/0.4


