Circuit: * C:\Users\Nico\Desktop\Circuitos Electronicos I\Trabajo de laboratorio 2\Simulaciones A\ac- Ro\A.asc

.OP point found by inspection.


Measurement "vomax" FAIL'ed
vimax: MAX(v(g))=(-117.848dB,-118.139°) FROM 0 TO 0.001


Date: Fri May 13 12:02:46 2016
Total elapsed time: 0.040 seconds.

tnom = 27
temp = 27
method = trap
totiter = 0
traniter = 0
tranpoints = 0
accept = 0
rejected = 0
matrix size = 9
fillins = 5
solver = Normal

