Circuit: * C:\Users\Nico\Desktop\Circuitos Electronicos I\Trabajo de laboratorio 2\Simulaciones A\trans\A.asc

Direct Newton iteration for .op point succeeded.


Measurement "vomax" FAIL'ed

Measurement "vimax" FAIL'ed


Date: Sun May 01 03:59:20 2016
Total elapsed time: 0.081 seconds.

tnom = 27
temp = 27
method = modified trap
totiter = 2100
traniter = 2092
tranpoints = 1047
accept = 1047
rejected = 0
matrix size = 11
fillins = 0
solver = Normal
Matrix Compiler1: 692 bytes object code size  0.4/0.1/[0.1]
Matrix Compiler2: off  [0.1]/0.2/0.2


