Circuit: * C:\Users\Nico\Desktop\circuitos\TL4\clase A\TL4.asc

Direct Newton iteration for .op point succeeded.
Changing Tseed to 1e-010

Date: Tue Sep 20 12:35:41 2016
Total elapsed time: 0.082 seconds.

tnom = 27
temp = 27
method = modified trap
totiter = 2285
traniter = 2275
tranpoints = 1084
accept = 1078
rejected = 5
matrix size = 26
fillins = 14
solver = Normal
Matrix Compiler1: 2.29 KB object code size  1.7/0.7/[0.5]
Matrix Compiler2: off  [0.6]/0.7/0.9


