Circuit: * C:\Users\Nico\Desktop\Circuitos Electronicos I\Trabajo de laboratorio 2\Simulaciones A\ac-RiyAv\A.asc

Direct Newton iteration for .op point succeeded.


Measurement "vomax" FAIL'ed

Measurement "vimax" FAIL'ed


Date: Thu May 12 15:28:55 2016
Total elapsed time: 0.056 seconds.

tnom = 27
temp = 27
method = trap
totiter = 5
traniter = 0
tranpoints = 0
accept = 0
rejected = 0
matrix size = 10
fillins = 0
solver = Normal
Matrix Compiler1:      36 opcodes
Matrix Compiler2: 808 bytes object code size

